Version 4
SHEET 1 880 680
WIRE -16 144 -80 144
WIRE 128 144 64 144
WIRE 320 144 224 144
WIRE 432 144 320 144
WIRE 320 160 320 144
WIRE -80 176 -80 144
WIRE 128 176 112 176
WIRE 240 176 224 176
WIRE 432 176 432 144
WIRE 112 208 112 176
WIRE 240 208 240 176
WIRE 320 256 320 240
WIRE 432 256 432 240
WIRE -80 304 -80 256
FLAG 112 208 0
FLAG 240 208 0
FLAG -80 304 0
FLAG 320 256 0
FLAG 432 256 0
SYMBOL voltage -80 160 R0
WINDOW 123 0 0 Left 2
WINDOW 39 24 124 Left 2
SYMATTR InstName V1
SYMATTR Value PULSE(0 2 0 {X} {X} 100u 200u)
SYMBOL res 304 144 R0
SYMATTR InstName R2
SYMATTR Value 100
SYMBOL tline 176 160 R0
SYMATTR InstName T1
SYMATTR Value Td=15.152n Z0=50
SYMBOL res 80 128 R90
WINDOW 0 0 56 VBottom 2
WINDOW 3 32 56 VTop 2
SYMATTR InstName R1
SYMATTR Value 50
SYMBOL cap 416 176 R0
SYMATTR InstName C1
SYMATTR Value 3.9n
TEXT -112 328 Left 2 !.tran 0.5u
TEXT -32 448 Left 2 !.step param X list 2n 10n 20n 50n 100n 200n 500n
